[setup]

coupled_domains: fluid:solid

[job_defaults]

n_procs: 
n_threads: 

[fluid]

domain: fluid
n_procs_weight: None
solver: Code_Saturne

[solid]

domain: solid
n_procs_weight: None
opt: 
param: solid-coupling.syd
solver: SYRTHES

