
Local case configuration:

  Date:                mer. 16 juil. 2025 15:48:48
  System:              Linux 6.1.0-37-amd64 (Debian GNU/Linux 12 (bookworm))
  Machine:             dsp1145402
  Processor:           model name	: 13th Gen Intel(R) Core(TM) i5-13600H
  Memory:              31728 MB
  Directory:           /home/D43345/Code_Saturne/Validation/saturne-tutorials/04_Three_2D_Disks/02_cht_cdo/solid/RESU/20250716-1548
  OpenMP threads:      1
  Processors/node:     16

  Debug build

  Compilers used for build:
    C compiler:        gcc (Debian 12.2.0-14+deb12u1) 12.2.0
    C++ compiler:      g++ (Debian 12.2.0-14+deb12u1) 12.2.0
    Fortran compiler:  GNU Fortran (Debian 12.2.0-14+deb12u1) 12.2.0

  MPI version: 3.1 (Open MPI 4.1.4)
  OpenMP version: 4.5

  External libraries:
    PETSc 3.20.1
      SLEPc not available
      HPDDM not available
    HYPRE 2.30.0
    METIS
    PT-SCOTCH 7.0.4

  I/O read method:     standard input and output, serial access
  I/O write method:    standard input and output, serial access

--------------------------------------------------------------------------------

Halo creation times summary

  Halo creation:                             0 s

  Total time for halo creation:              0 s

--------------------------------------------------------------------------------

Total elapsed time for preprocessing:  0.008 s

Mesh size:
  Number of cells:                     2904
  Number of interior faces:            4176
  Number of boundary faces:            6168
  Number of vertices:                  3264

--------------------------------------------------------------------------------

Total elapsed time for all gradient computations:  0.211 s

Summary of gradient computations for "[cell mass flux divergence update]":

  Reconstruction type:   Green-Gauss, least-squares gradient face values
  Number of calls:       10
  Total elapsed time:    0.010

Summary of gradient computations for "[face mass flux update]":

  Reconstruction type:   Green-Gauss, least-squares gradient face values
  Number of calls:       20
  Total elapsed time:    0.021

Summary of gradient computations for "[momentum]":

  Reconstruction type:   Green-Gauss, least-squares gradient face values
  Number of calls:       10
  Total elapsed time:    0.048

Summary of gradient computations for "cromo_grad":

  Reconstruction type:   Green-Gauss, least-squares gradient face values
  Number of calls:       10
  Total elapsed time:    0.008

Summary of gradient computations for "epsilon":

  Reconstruction type:   Green-Gauss, least-squares gradient face values
  Number of calls:       20
  Total elapsed time:    0.015

Summary of gradient computations for "k":

  Reconstruction type:   Green-Gauss, least-squares gradient face values
  Number of calls:       20
  Total elapsed time:    0.015

Summary of gradient computations for "pressure":

  Reconstruction type:   Green-Gauss, least-squares gradient face values
  Number of calls:       20
  Total elapsed time:    0.021

Summary of gradient computations for "pressure_increment":

  Reconstruction type:   Green-Gauss, least-squares gradient face values
  Number of calls:       10
  Total elapsed time:    0.010

Summary of gradient computations for "velocity":

  Reconstruction type:   Green-Gauss, least-squares gradient face values
  Number of calls:       30
  Total elapsed time:    0.062

--------------------------------------------------------------------------------

Total elapsed time for linear equation system solvers:  0.015 s

Linear solver performance for fields
------------------------------------

Summary of resolutions for "velocity" (field id 0)

  No resolution

  Number of immediate solve exits: 10

Summary of resolutions for "pressure" (field id 1)

  No resolution

  Multigrid:
    V-cycle
    Coarsening                     : default, r 3
    Descent smoother               : Symmetric Gauss-Seidel
    Ascent smoother                : Symmetric Gauss-Seidel
    Coarsest level solver          : Conjugate Gradient

                                               mean      minimum      maximum
  Number of levels:                               0            0            0
  Number of cycles:                               0            0            0

                                                           calls         time

                                               mean      minimum      maximum
                                                           calls         time

Summary of resolutions for "k" (field id 2)

  Solver type:                   Symmetric Gauss-Seidel
  Number of setups:                        10
  Number of calls:                         10
  Minimum number of iterations:             3
  Maximum number of iterations:            22
  Total number of iterations:              55
  Mean number of iterations:                5
  Total setup time:                     0.000
  Total solution time:                  0.004

Summary of resolutions for "epsilon" (field id 3)

  Solver type:                   Symmetric Gauss-Seidel
  Number of setups:                        10
  Number of calls:                         10
  Minimum number of iterations:             2
  Maximum number of iterations:           100
  Total number of iterations:             130
  Mean number of iterations:               13
  Total setup time:                     0.000
  Total solution time:                  0.008

  Backup solver type:            GMRES
  Number of calls:                          1
  Minimum number of iterations:            17
  Maximum number of iterations:            17
  Mean number of iterations:               17
  Total solution time:                  0.003

--------------------------------------------------------------------------------

Total elapsed time for controller:  0.000 s

Mesh entity selections by criteria statistics:

  entity type     evaluations          time
  -----------------------------------------
  cells                     0       0.00000
  interior faces            0       0.00000
  boundary faces            0       0.00000

--------------------------------------------------------------------------------

Writing of "results" (EnSight Gold) summary:

  Elapsed time for meshes:                 0.000
  Elapsed time for variables:              0.010
  Elapsed time forcing output:             0.000

--------------------------------------------------------------------------------

code_saturne IO files read:

  mesh_input.csm
    data:      0.00137 s,      571.042 KiB
    open:      0.00144 s, 2 open(s)

code_saturne IO files written:

  checkpoint/auxiliary.csc
    data:      0.00395 s,        2.196 MiB
    open:      0.00450 s, 1 open(s)
  checkpoint/main.csc
    data:      0.00026 s,      138.671 KiB
    open:      0.00031 s, 1 open(s)

--------------------------------------------------------------------------------

Calculation time summary:

  User CPU time:              0.547 s
  System CPU time:            0.008 s

  Elapsed time:               0.548 s
  CPU / elapsed time          1.013

--------------------------------------------------------------------------------

Memory use summary:

  Total memory used:                             340.398 MiB
  Virtual memory used:                           200.531 MiB
  Shared libraries memory used:                  140.719 MiB

--------------------------------------------------------------------------------
