========================================================
Start time       : Wednesday July 16 15:48:48 CEST 2025
========================================================
  Command        : /home/D43345/Code_Saturne/arch/dbg_90/bin/code_saturne run
========================================================
  Package path   : /home/D43345/Code_Saturne/arch/dbg_90
  ----------------------------------------------------
  MPI path       : /usr/lib/x86_64-linux-gnu/openmpi/bin
  MPI type       : OpenMPI
  ----------------------------------------------------
  User           : D43345
  ----------------------------------------------------
  Machine        : Linux dsp1145402 6.1.0-37-amd64 #1 SMP PREEMPT_DYNAMIC Debian 6.1.140-1 (2025-05-22) x86_64  
  N Procs        : 1
  ----------------------------------------------------
  Environment variables
    ASAN_OPTIONS=detect_leaks=0
    BASH_ENV=/usr/share/lmod/lmod/init/bash
    CFD_FRONT=/data/rd/work/projets.002/cfd_frontieres.225
    COLORTERM=truecolor
    CUDBG_USE_LEGACY_DEBUGGER=1
    DBUS_SESSION_BUS_ADDRESS=unix:path=/run/user/62064/bus
    DESKTOP_SESSION=gnome
    DISPLAY=:1
    EDITOR=emacs
    GDMSESSION=gnome
    GDM_LANG=fr_FR.UTF-8
    GNOME_DESKTOP_SESSION_ID=this-is-deprecated
    GNOME_TERMINAL_SCREEN=/org/gnome/Terminal/screen/e129118f_19e1_4c64_8e16_89f096ccfeac
    GNOME_TERMINAL_SERVICE=:1.135
    GPG_AGENT_INFO=/run/user/62064/gnupg/S.gpg-agent:0:1
    GTK_IM_MODULE=ibus
    GTK_MODULES=gail:atk-bridge
    HOME=/home/D43345
    HTTPS_PROXY=vip-users.proxy.edf.fr:3131
    HTTP_PROXY=vip-users.proxy.edf.fr:3131
    INSPIRE_CFD=/data/rd/work/projets.001/inspire_cfd
    KRB5CCNAME=FILE:/tmp/krb5cc_62064_RrwDLk
    LANG=fr_FR.UTF-8
    LMOD_CMD=/usr/share/lmod/lmod/libexec/lmod
    LMOD_DIR=/usr/share/lmod/lmod/libexec
    LMOD_PKG=/usr/share/lmod/lmod
    LMOD_ROOT=/usr/share/lmod
    LMOD_SETTARG_FULL_SUPPORT=no
    LMOD_VERSION=8.6.19
    LMOD_sys=Linux
    LOGNAME=D43345
    LS_COLORS=rs=0:di=01;34:ln=01;36:mh=00:pi=40;33:so=01;35:do=01;35:bd=40;33;01:cd=40;33;01:or=40;31;01:mi=00:su=37;41:sg=30;43:ca=00:tw=30;42:ow=34;42:st=37;44:ex=01;32:*.tar=01;31:*.tgz=01;31:*.arc=01;31:*.arj=01;31:*.taz=01;31:*.lha=01;31:*.lz4=01;31:*.lzh=01;31:*.lzma=01;31:*.tlz=01;31:*.txz=01;31:*.tzo=01;31:*.t7z=01;31:*.zip=01;31:*.z=01;31:*.dz=01;31:*.gz=01;31:*.lrz=01;31:*.lz=01;31:*.lzo=01;31:*.xz=01;31:*.zst=01;31:*.tzst=01;31:*.bz2=01;31:*.bz=01;31:*.tbz=01;31:*.tbz2=01;31:*.tz=01;31:*.deb=01;31:*.rpm=01;31:*.jar=01;31:*.war=01;31:*.ear=01;31:*.sar=01;31:*.rar=01;31:*.alz=01;31:*.ace=01;31:*.zoo=01;31:*.cpio=01;31:*.7z=01;31:*.rz=01;31:*.cab=01;31:*.wim=01;31:*.swm=01;31:*.dwm=01;31:*.esd=01;31:*.avif=01;35:*.jpg=01;35:*.jpeg=01;35:*.mjpg=01;35:*.mjpeg=01;35:*.gif=01;35:*.bmp=01;35:*.pbm=01;35:*.pgm=01;35:*.ppm=01;35:*.tga=01;35:*.xbm=01;35:*.xpm=01;35:*.tif=01;35:*.tiff=01;35:*.png=01;35:*.svg=01;35:*.svgz=01;35:*.mng=01;35:*.pcx=01;35:*.mov=01;35:*.mpg=01;35:*.mpeg=01;35:*.m2v=01;35:*.mkv=01;35:*.webm=01;35:*.webp=01;35:*.ogm=01;35:*.mp4=01;35:*.m4v=01;35:*.mp4v=01;35:*.vob=01;35:*.qt=01;35:*.nuv=01;35:*.wmv=01;35:*.asf=01;35:*.rm=01;35:*.rmvb=01;35:*.flc=01;35:*.avi=01;35:*.fli=01;35:*.flv=01;35:*.gl=01;35:*.dl=01;35:*.xcf=01;35:*.xwd=01;35:*.yuv=01;35:*.cgm=01;35:*.emf=01;35:*.ogv=01;35:*.ogx=01;35:*.aac=00;36:*.au=00;36:*.flac=00;36:*.m4a=00;36:*.mid=00;36:*.midi=00;36:*.mka=00;36:*.mp3=00;36:*.mpc=00;36:*.ogg=00;36:*.ra=00;36:*.wav=00;36:*.oga=00;36:*.opus=00;36:*.spx=00;36:*.xspf=00;36:*~=00;90:*#=00;90:*.bak=00;90:*.old=00;90:*.orig=00;90:*.part=00;90:*.rej=00;90:*.swp=00;90:*.tmp=00;90:*.dpkg-dist=00;90:*.dpkg-old=00;90:*.ucf-dist=00;90:*.ucf-new=00;90:*.ucf-old=00;90:*.rpmnew=00;90:*.rpmorig=00;90:*.rpmsave=00;90:
    MANPATH=/usr/share/lmod/lmod/share/man:
    MARGES=/data/rd/projets/projets.002/marges.107
    MODULEPATH=/opt/modulefiles/base:/opt/modulefiles/lib:/home/D43345/opt/nvidia/hpc_sdk/modulefiles
    MODULEPATH_ROOT=/usr/share/modulefiles
    MODULESHOME=/usr/share/lmod/lmod
    NETDATA=/data/rd/users/D43345
    NO_PROXY=localhost,.edf.fr,nexus.retd.edf.fr
    OLDPWD=/home/D43345/Code_Saturne/Validation/saturne-tutorials/04_Three_2D_Disks/02_cht_cdo/solid
    OMP_NUM_THREADS=1
    PATH=/usr/local/bin:/usr/bin:/bin:/usr/local/games:/usr/games:/home/D43345/.local/bin:/home/D43345/.local/bin
    PTHL=/data/rd/work/projets.001/pf_thermo_hydrau_locale.107
    PWD=/home/D43345/Code_Saturne/Validation/saturne-tutorials/04_Three_2D_Disks/02_cht_cdo/solid/DATA
    QT_ACCESSIBILITY=1
    QT_IM_MODULE=ibus
    SATURNE=/data/rd/work/projets.001/saturne.005
    SESSION_MANAGER=local/dsp1145402:@/tmp/.ICE-unix/4755,unix/dsp1145402:/tmp/.ICE-unix/4755
    SHELL=/bin/bash
    SHLVL=1
    SSH_AGENT_PID=4670
    SSH_AUTH_SOCK=/run/user/62064/keyring/ssh
    SYSTEMD_EXEC_PID=4777
    TERM=xterm-256color
    USER=D43345
    USERNAME=D43345
    VTE_VERSION=7006
    WINDOWPATH=2
    XAUTHORITY=/run/user/62064/gdm/Xauthority
    XDG_CURRENT_DESKTOP=GNOME
    XDG_DATA_DIRS=/usr/share/gnome:/usr/local/share/:/usr/share/
    XDG_MENU_PREFIX=gnome-
    XDG_RUNTIME_DIR=/run/user/62064
    XDG_SESSION_CLASS=user
    XDG_SESSION_DESKTOP=gnome
    XDG_SESSION_TYPE=x11
    XMODIFIERS=@im=ibus
    _=/home/D43345/Code_Saturne/arch/dbg_90/bin/code_saturne
    _ModuleTable001_=X01vZHVsZVRhYmxlXyA9IHsKTVR2ZXJzaW9uID0gMywKY19yZWJ1aWxkVGltZSA9IGZhbHNlLApjX3Nob3J0VGltZSA9IGZhbHNlLApkZXB0aFQgPSB7fSwKZmFtaWx5ID0ge30sCm1UID0ge30sCm1wYXRoQSA9IHsKIi9vcHQvbW9kdWxlZmlsZXMvYmFzZSIsICIvb3B0L21vZHVsZWZpbGVzL2xpYiIsICIvaG9tZS9ENDMzNDUvb3B0L252aWRpYS9ocGNfc2RrL21vZHVsZWZpbGVzIiwKfSwKc3lzdGVtQmFzZU1QQVRIID0gIi9vcHQvbW9kdWxlZmlsZXMvYmFzZTovb3B0L21vZHVsZWZpbGVzL2xpYjovaG9tZS9ENDMzNDUvb3B0L252aWRpYS9ocGNfc2RrL21vZHVsZWZpbGVzIiwKfQo=
    _ModuleTable_Sz_=1
    __LMOD_REF_COUNT_MODULEPATH=/opt/modulefiles/base:1;/opt/modulefiles/lib:1;/home/D43345/opt/nvidia/hpc_sdk/modulefiles:1
    http_proxy=vip-users.proxy.edf.fr:3131
    https_proxy=vip-users.proxy.edf.fr:3131
    no_proxy=localhost,.edf.fr,nexus.retd.edf.fr
  ----------------------------------------------------
  Case           : solid
    directory    : /home/D43345/Code_Saturne/Validation/saturne-tutorials/04_Three_2D_Disks/02_cht_cdo/solid
    results dir. : /home/D43345/Code_Saturne/Validation/saturne-tutorials/04_Three_2D_Disks/02_cht_cdo/solid/RESU/20250716-1548
    preprocessor : /home/D43345/Code_Saturne/arch/dbg_90/libexec/code_saturne/cs_preprocess
  ----------------------------------------------------
========================================================
Finish time      : Wednesday July 16 15:48:49 CEST 2025
========================================================
